v0.8:
    - Remote synchronization of run experiment with github repository
    - Error logs are now captured and archived separate from successful runs
    - PBS and error logs are now saved in the archive directory
    - Basic OpenMP support
    - FMS collation default flag update (netCDF4)
    - Error code reporting from FMS collation
    - OASIS namcouple cleanup

    New dependencies:
        - requests[security] (for github sync support)

    New model support:
        - Q-GCM
        - CICE 5

    Bug fixes:
        - Calendar leap year support
        - Payu module pathname
        - Protect environment variables with '\n' from corruption by PBS Pro
        - CICE restart cleanup

v0.7:
    - `payu setup` and `payu archive` commands now available
      (c/o Aidan Heerdegen)
    - Basic support for NEMO
    - `platform` configuration now available to set per-node CPU and RAM
    - Enable Lustre IO striping with `stripedio` config flag
    - Git-based logging of job submissions is now enabled by default
    - Basic (and incomplete) testing framework now available
    - Several bugfixes related to repeatable runs and submodel testing

v0.6:
    - Partially committed node flags (`npernode`) updated to new syntax
    - Non-directories in archive (e.g. symbolic links) are not deleted
    - Improved single-core MITgcm support
    - MITgcm runtimes can now be set in time, rather than just timesteps
    - `payu build` now ignores user .gitconfig settings
    - Some profiler cleanup (openspeedshop moved to Profiler class)
    - Minimal WAVEWATCH III support
    - A non-functional test suite was started, please add to it!

v0.5:
    - Multithreaded collation (c/o Aidan Heerdegen)
    - Improved CICE and ACCESS support (c/o Nicholas Hannah)
    - Explict output collation path (c/o Aidan Heerdegen)
    - Default jobname is not set to control path directory name
    - repeat runs (repeat: True) now delete any restart files
    - Profiler driver class introduced (not yet adopted for all)
    - Documentation update (incomplete)

v0.4.1:
    - MOM: mppnccombine bugfix for land masked runs
    - We now save the last N restarts, rather than every Nth plus any inbetween
    - MOM6 support (Angus Gibson)
    - Runtimes for various models can now be set in seconds
    - Exit code error message clarification
    - ACCESS default repository change (CWSL)
    - setuptools default support
    - wheel install support

v0.4:
    - Initial setup of model and profiler driver framework
    - `env` and `mpirun` config.yaml values can now safely be unset
    - Bugfix of `payu sweep` of collate logs
    - ACCESS repeat_run bugfix

v0.3.2:
    - TODO

v0.3:
    - TODO

v0.2:
    - TODO

v0.1:
    - TODO
